3
Time=5.00000e-07 s
P 150.010919 149.914746 198.996600
P 100.003256 100.010572 150.005560
P 99.996744 99.989428 49.994440
3
Time=5.00000e-07 s
P 150.032695 149.746079 198.989060
P 100.009771 100.031713 150.016681
P 100.049480 99.975507 49.981269
3
Time=1.00000e-06 s
P 150.065325 149.493955 198.977284
P 100.019552 100.063421 150.033372
P 100.075645 99.960231 49.937453
3
Time=1.50000e-06 s
P 150.108805 149.160074 198.961312
P 100.032594 100.105701 150.055638
P 100.075255 99.943616 49.862961
3
Time=2.00000e-06 s
P 150.163233 148.744378 198.941137
P 100.048903 100.158565 150.083490
P 100.048283 99.925678 49.757719
