2
Time=1.00000e-06 s
P 0.499 0.299 0.299
P 0.799 0.199 0.199
2
Time=2.00000e-06 s
P 0.497 0.297 0.297
P 0.799 0.199 0.199
2
Time=3.00000e-06 s
P 0.496 0.296 0.296
P 0.798 0.198 0.198
2
Time=4.00000e-06 s
P 0.495 0.295 0.295
P 0.797 0.197 0.197
2
Time=5.00000e-06 s
P 0.493 0.293 0.293
P 0.796 0.196 0.196
2
Time=6.00000e-06 s
P 0.492 0.292 0.292
P 0.796 0.196 0.196
2
Time=7.00000e-06 s
P 0.491 0.291 0.291
P 0.795 0.195 0.195
2
Time=8.00000e-06 s
P 0.490 0.289 0.289
P 0.794 0.194 0.194
2
Time=9.00000e-06 s
P 0.488 0.288 0.288
P 0.794 0.193 0.193
2
Time=1.00000e-05 s
P 0.487 0.287 0.286
P 0.793 0.193 0.193
2
Time=1.10000e-05 s
P 0.486 0.285 0.285
P 0.792 0.192 0.192
2
Time=1.20000e-05 s
P 0.485 0.284 0.283
P 0.791 0.191 0.191
2
Time=1.30000e-05 s
P 0.484 0.283 0.282
P 0.791 0.191 0.190
2
Time=1.40000e-05 s
P 0.482 0.282 0.280
P 0.790 0.190 0.190
2
Time=1.50000e-05 s
P 0.481 0.280 0.279
P 0.789 0.189 0.189
2
Time=1.60000e-05 s
P 0.480 0.279 0.278
P 0.789 0.188 0.188
2
Time=1.70000e-05 s
P 0.479 0.278 0.276
P 0.788 0.188 0.187
2
Time=1.80000e-05 s
P 0.478 0.276 0.275
P 0.787 0.187 0.187
2
Time=1.90000e-05 s
P 0.477 0.275 0.273
P 0.787 0.186 0.186
2
Time=2.00000e-05 s
P 0.476 0.274 0.272
P 0.786 0.185 0.185
2
Time=2.10000e-05 s
P 0.475 0.272 0.270
P 0.785 0.185 0.185
2
Time=2.20000e-05 s
P 0.473 0.271 0.268
P 0.784 0.184 0.184
2
Time=2.30000e-05 s
P 0.472 0.270 0.267
P 0.784 0.183 0.183
2
Time=2.40000e-05 s
P 0.471 0.269 0.265
P 0.783 0.183 0.182
2
Time=2.50000e-05 s
P 0.470 0.267 0.264
P 0.782 0.182 0.181
2
Time=2.60000e-05 s
P 0.469 0.266 0.262
P 0.782 0.181 0.181
2
Time=2.70000e-05 s
P 0.468 0.265 0.261
P 0.781 0.180 0.180
2
Time=2.80000e-05 s
P 0.467 0.263 0.259
P 0.780 0.180 0.179
2
Time=2.90000e-05 s
P 0.466 0.262 0.258
P 0.780 0.179 0.178
2
Time=3.00000e-05 s
P 0.465 0.261 0.256
P 0.779 0.178 0.178
2
Time=3.10000e-05 s
P 0.464 0.260 0.254
P 0.778 0.177 0.177
2
Time=3.20000e-05 s
P 0.463 0.258 0.253
P 0.778 0.177 0.176
2
Time=3.30000e-05 s
P 0.462 0.257 0.251
P 0.777 0.176 0.175
2
Time=3.40000e-05 s
P 0.461 0.256 0.249
P 0.776 0.175 0.175
2
Time=3.50000e-05 s
P 0.460 0.255 0.248
P 0.776 0.175 0.174
2
Time=3.60000e-05 s
P 0.459 0.253 0.246
P 0.775 0.174 0.173
2
Time=3.70000e-05 s
P 0.459 0.252 0.245
P 0.775 0.173 0.172
2
Time=3.80000e-05 s
P 0.458 0.251 0.243
P 0.774 0.172 0.172
2
Time=3.90000e-05 s
P 0.457 0.250 0.241
P 0.773 0.172 0.171
2
Time=4.00000e-05 s
P 0.456 0.248 0.240
P 0.773 0.171 0.170
2
Time=4.10000e-05 s
P 0.455 0.247 0.238
P 0.772 0.170 0.169
2
Time=4.20000e-05 s
P 0.454 0.246 0.236
P 0.771 0.170 0.169
2
Time=4.30000e-05 s
P 0.453 0.245 0.235
P 0.771 0.169 0.168
2
Time=4.40000e-05 s
P 0.453 0.244 0.233
P 0.770 0.168 0.167
2
Time=4.50000e-05 s
P 0.452 0.242 0.231
P 0.769 0.167 0.166
2
Time=4.60000e-05 s
P 0.451 0.241 0.229
P 0.769 0.167 0.166
2
Time=4.70000e-05 s
P 0.450 0.240 0.228
P 0.768 0.166 0.165
2
Time=4.80000e-05 s
P 0.449 0.239 0.226
P 0.768 0.165 0.164
2
Time=4.90000e-05 s
P 0.449 0.238 0.224
P 0.767 0.164 0.163
2
Time=5.00000e-05 s
P 0.448 0.236 0.223
P 0.766 0.164 0.162
2
Time=5.10000e-05 s
P 0.447 0.235 0.221
P 0.766 0.163 0.162
2
Time=5.20000e-05 s
P 0.446 0.234 0.219
P 0.765 0.162 0.161
2
Time=5.30000e-05 s
P 0.446 0.233 0.217
P 0.764 0.162 0.160
2
Time=5.40000e-05 s
P 0.445 0.232 0.216
P 0.764 0.161 0.159
2
Time=5.50000e-05 s
P 0.444 0.230 0.214
P 0.763 0.160 0.159
2
Time=5.60000e-05 s
P 0.444 0.229 0.212
P 0.763 0.159 0.158
2
Time=5.70000e-05 s
P 0.443 0.228 0.210
P 0.762 0.159 0.157
2
Time=5.80000e-05 s
P 0.442 0.227 0.209
P 0.761 0.158 0.156
2
Time=5.90000e-05 s
P 0.442 0.226 0.207
P 0.761 0.157 0.156
2
Time=6.00000e-05 s
P 0.441 0.225 0.205
P 0.760 0.157 0.155
2
Time=6.10000e-05 s
P 0.440 0.224 0.203
P 0.760 0.156 0.154
2
Time=6.20000e-05 s
P 0.440 0.222 0.202
P 0.759 0.155 0.153
2
Time=6.30000e-05 s
P 0.439 0.221 0.200
P 0.759 0.154 0.152
2
Time=6.40000e-05 s
P 0.438 0.220 0.198
P 0.758 0.154 0.152
2
Time=6.50000e-05 s
P 0.438 0.219 0.196
P 0.757 0.153 0.151
2
Time=6.60000e-05 s
P 0.437 0.218 0.195
P 0.757 0.152 0.150
2
Time=6.70000e-05 s
P 0.437 0.217 0.193
P 0.756 0.152 0.149
2
Time=6.80000e-05 s
P 0.436 0.216 0.191
P 0.756 0.151 0.149
2
Time=6.90000e-05 s
P 0.436 0.215 0.189
P 0.755 0.150 0.148
2
Time=7.00000e-05 s
P 0.435 0.213 0.187
P 0.754 0.150 0.147
2
Time=7.10000e-05 s
P 0.435 0.212 0.186
P 0.754 0.149 0.146
2
Time=7.20000e-05 s
P 0.434 0.211 0.184
P 0.753 0.148 0.145
2
Time=7.30000e-05 s
P 0.434 0.210 0.182
P 0.753 0.147 0.145
2
Time=7.40000e-05 s
P 0.433 0.209 0.180
P 0.752 0.147 0.144
2
Time=7.50000e-05 s
P 0.433 0.208 0.178
P 0.752 0.146 0.143
2
Time=7.60000e-05 s
P 0.432 0.207 0.177
P 0.751 0.145 0.142
2
Time=7.70000e-05 s
P 0.432 0.206 0.175
P 0.751 0.145 0.142
2
Time=7.80000e-05 s
P 0.431 0.205 0.173
P 0.750 0.144 0.141
2
Time=7.90000e-05 s
P 0.431 0.204 0.171
P 0.749 0.143 0.140
2
Time=8.00000e-05 s
P 0.430 0.203 0.169
P 0.749 0.143 0.139
2
Time=8.10000e-05 s
P 0.430 0.202 0.168
P 0.748 0.142 0.138
2
Time=8.20000e-05 s
P 0.430 0.201 0.166
P 0.748 0.141 0.138
2
Time=8.30000e-05 s
P 0.429 0.200 0.164
P 0.747 0.140 0.137
2
Time=8.40000e-05 s
P 0.429 0.199 0.162
P 0.747 0.140 0.136
2
Time=8.50000e-05 s
P 0.428 0.198 0.160
P 0.746 0.139 0.135
2
Time=8.60000e-05 s
P 0.428 0.196 0.159
P 0.746 0.138 0.135
2
Time=8.70000e-05 s
P 0.428 0.195 0.157
P 0.745 0.138 0.134
2
Time=8.80000e-05 s
P 0.427 0.194 0.155
P 0.745 0.137 0.133
2
Time=8.90000e-05 s
P 0.427 0.193 0.153
P 0.744 0.136 0.132
2
Time=9.00000e-05 s
P 0.427 0.192 0.151
P 0.744 0.136 0.131
2
Time=9.10000e-05 s
P 0.426 0.191 0.149
P 0.743 0.135 0.131
2
Time=9.20000e-05 s
P 0.426 0.190 0.148
P 0.743 0.134 0.130
2
Time=9.30000e-05 s
P 0.426 0.189 0.146
P 0.742 0.134 0.129
2
Time=9.40000e-05 s
P 0.425 0.188 0.144
P 0.742 0.133 0.128
2
Time=9.50000e-05 s
P 0.425 0.187 0.142
P 0.741 0.132 0.128
2
Time=9.60000e-05 s
P 0.425 0.186 0.140
P 0.741 0.131 0.127
2
Time=9.70000e-05 s
P 0.424 0.185 0.138
P 0.740 0.131 0.126
2
Time=9.80000e-05 s
P 0.424 0.184 0.137
P 0.740 0.130 0.125
2
Time=9.90000e-05 s
P 0.424 0.184 0.135
P 0.739 0.129 0.124
2
Time=1.00000e-04 s
P 0.424 0.183 0.133
P 0.739 0.129 0.124
2
Time=1.01000e-04 s
P 0.423 0.182 0.131
P 0.738 0.128 0.123
2
Time=1.02000e-04 s
P 0.423 0.181 0.129
P 0.738 0.127 0.122
2
Time=1.03000e-04 s
P 0.423 0.180 0.127
P 0.737 0.127 0.121
2
Time=1.04000e-04 s
P 0.423 0.179 0.126
P 0.737 0.126 0.121
2
Time=1.05000e-04 s
P 0.422 0.178 0.124
P 0.736 0.125 0.120
2
Time=1.06000e-04 s
P 0.422 0.177 0.122
P 0.736 0.125 0.119
2
Time=1.07000e-04 s
P 0.422 0.176 0.120
P 0.735 0.124 0.118
2
Time=1.08000e-04 s
P 0.422 0.175 0.118
P 0.735 0.123 0.117
2
Time=1.09000e-04 s
P 0.422 0.174 0.116
P 0.734 0.123 0.117
2
Time=1.10000e-04 s
P 0.422 0.173 0.115
P 0.734 0.122 0.116
2
Time=1.11000e-04 s
P 0.421 0.172 0.113
P 0.733 0.121 0.115
2
Time=1.12000e-04 s
P 0.421 0.171 0.111
P 0.733 0.121 0.114
2
Time=1.13000e-04 s
P 0.421 0.170 0.109
P 0.732 0.120 0.114
2
Time=1.14000e-04 s
P 0.421 0.169 0.107
P 0.732 0.119 0.113
2
Time=1.15000e-04 s
P 0.421 0.169 0.105
P 0.731 0.119 0.112
2
Time=1.16000e-04 s
P 0.421 0.168 0.104
P 0.731 0.118 0.111
2
Time=1.17000e-04 s
P 0.420 0.167 0.102
P 0.730 0.117 0.110
2
Time=1.18000e-04 s
P 0.420 0.166 0.100
P 0.730 0.117 0.110
2
Time=1.19000e-04 s
P 0.420 0.165 0.098
P 0.730 0.116 0.109
2
Time=1.20000e-04 s
P 0.420 0.164 0.096
P 0.729 0.115 0.108
2
Time=1.21000e-04 s
P 0.420 0.163 0.094
P 0.729 0.115 0.107
2
Time=1.22000e-04 s
P 0.420 0.162 0.093
P 0.728 0.114 0.106
2
Time=1.23000e-04 s
P 0.420 0.161 0.091
P 0.728 0.113 0.106
2
Time=1.24000e-04 s
P 0.420 0.161 0.089
P 0.727 0.113 0.105
2
Time=1.25000e-04 s
P 0.420 0.160 0.087
P 0.727 0.112 0.104
2
Time=1.26000e-04 s
P 0.420 0.159 0.085
P 0.726 0.111 0.103
2
Time=1.27000e-04 s
P 0.420 0.158 0.083
P 0.726 0.111 0.103
2
Time=1.28000e-04 s
P 0.420 0.157 0.082
P 0.726 0.110 0.102
2
Time=1.29000e-04 s
P 0.419 0.156 0.080
P 0.725 0.109 0.101
2
Time=1.30000e-04 s
P 0.419 0.155 0.078
P 0.725 0.109 0.100
2
Time=1.31000e-04 s
P 0.419 0.155 0.076
P 0.724 0.108 0.099
2
Time=1.32000e-04 s
P 0.419 0.154 0.074
P 0.724 0.107 0.099
2
Time=1.33000e-04 s
P 0.419 0.153 0.072
P 0.723 0.107 0.098
2
Time=1.34000e-04 s
P 0.419 0.152 0.070
P 0.723 0.106 0.097
2
Time=1.35000e-04 s
P 0.419 0.151 0.069
P 0.723 0.105 0.096
2
Time=1.36000e-04 s
P 0.419 0.150 0.067
P 0.722 0.105 0.096
2
Time=1.37000e-04 s
P 0.419 0.150 0.065
P 0.722 0.104 0.095
2
Time=1.38000e-04 s
P 0.419 0.149 0.063
P 0.721 0.103 0.094
2
Time=1.39000e-04 s
P 0.419 0.148 0.061
P 0.721 0.103 0.093
2
Time=1.40000e-04 s
P 0.419 0.147 0.059
P 0.721 0.102 0.092
2
Time=1.41000e-04 s
P 0.419 0.146 0.058
P 0.720 0.101 0.092
2
Time=1.42000e-04 s
P 0.419 0.145 0.056
P 0.720 0.101 0.091
2
Time=1.43000e-04 s
P 0.419 0.145 0.054
P 0.719 0.100 0.090
2
Time=1.44000e-04 s
P 0.419 0.144 0.052
P 0.719 0.100 0.089
2
Time=1.45000e-04 s
P 0.420 0.143 0.050
P 0.719 0.099 0.089
2
Time=1.46000e-04 s
P 0.420 0.142 0.048
P 0.718 0.098 0.088
2
Time=1.47000e-04 s
P 0.420 0.142 0.047
P 0.718 0.098 0.087
2
Time=1.48000e-04 s
P 0.420 0.141 0.045
P 0.717 0.097 0.086
2
Time=1.49000e-04 s
P 0.420 0.140 0.043
P 0.717 0.096 0.085
2
Time=1.50000e-04 s
P 0.420 0.139 0.041
P 0.717 0.096 0.085
2
Time=1.51000e-04 s
P 0.420 0.138 0.039
P 0.716 0.095 0.084
2
Time=1.52000e-04 s
P 0.420 0.138 0.038
P 0.716 0.094 0.083
2
Time=1.53000e-04 s
P 0.420 0.137 0.036
P 0.715 0.094 0.082
2
Time=1.54000e-04 s
P 0.420 0.136 0.034
P 0.715 0.093 0.082
2
Time=1.55000e-04 s
P 0.420 0.135 0.032
P 0.715 0.092 0.081
2
Time=1.56000e-04 s
P 0.420 0.135 0.030
P 0.714 0.092 0.080
2
Time=1.57000e-04 s
P 0.420 0.134 0.028
P 0.714 0.091 0.079
2
Time=1.58000e-04 s
P 0.421 0.133 0.027
P 0.714 0.091 0.078
2
Time=1.59000e-04 s
P 0.421 0.132 0.025
P 0.713 0.090 0.078
2
Time=1.60000e-04 s
P 0.421 0.132 0.023
P 0.713 0.089 0.077
2
Time=1.61000e-04 s
P 0.421 0.131 0.021
P 0.712 0.089 0.076
2
Time=1.62000e-04 s
P 0.421 0.130 0.019
P 0.712 0.088 0.075
2
Time=1.63000e-04 s
P 0.421 0.129 0.017
P 0.712 0.087 0.075
2
Time=1.64000e-04 s
P 0.421 0.129 0.016
P 0.711 0.087 0.074
2
Time=1.65000e-04 s
P 0.422 0.128 0.014
P 0.711 0.086 0.073
2
Time=1.66000e-04 s
P 0.422 0.127 0.012
P 0.711 0.086 0.072
2
Time=1.67000e-04 s
P 0.422 0.126 0.010
P 0.710 0.085 0.072
2
Time=1.68000e-04 s
P 0.422 0.126 0.008
P 0.710 0.084 0.071
2
Time=1.69000e-04 s
P 0.422 0.125 0.007
P 0.710 0.084 0.070
2
Time=1.70000e-04 s
P 0.422 0.124 0.005
P 0.709 0.083 0.069
2
Time=1.71000e-04 s
P 0.422 0.123 0.003
P 0.709 0.082 0.068
2
Time=1.72000e-04 s
P 0.423 0.123 0.001
P 0.709 0.082 0.068
2
Time=1.73000e-04 s
P 0.423 0.122 -0.001
P 0.708 0.081 0.067
2
Time=1.74000e-04 s
